@<TRIPOS>MOLECULE
QUICKSTART_LIG
 5 4 0 0 0
SMALL
NO_CHARGES

@<TRIPOS>ATOM
      1 C1          0.0000    0.0000    0.0000 C.3       1 LIG       0.0000
      2 C2          1.3000    0.0000    0.0000 C.3       1 LIG       0.0000
      3 O1          1.9500    1.0800    0.0000 O.3       1 LIG       0.0000
      4 N1         -0.6500    1.0800    0.0000 N.3       1 LIG       0.0000
      5 C3          0.6500    1.7000    0.0000 C.3       1 LIG       0.0000
@<TRIPOS>BOND
     1    1    2 1
     2    2    3 1
     3    1    4 1
     4    4    5 1
